<?xml version="1.0" encoding="UTF-8"?>
<!DOCTYPE transitSchedule SYSTEM "http://www.matsim.org/files/dtd/transitSchedule_v1.dtd">


<transitSchedule>
	<transitStops>
		<stopFacility id="GVB:00001" x="631615.4043845165" y="5802985.323649656" linkRefId="pt476" name="Amsterdam, Muiderpoortstation" isBlocking="false"/>
		<stopFacility id="GVB:00001.1" x="631615.4043845165" y="5802985.323649656" linkRefId="pt1029" name="Amsterdam, Muiderpoortstation" isBlocking="false"/>
		<stopFacility id="GVB:00005" x="631610.8231204854" y="5802973.181569391" linkRefId="pt538" name="Amsterdam, Muiderpoortstation" isBlocking="false"/>
		<stopFacility id="GVB:00006" x="631671.3484319902" y="5802957.103758387" linkRefId="pt432" name="Amsterdam, Muiderpoortstation" isBlocking="false"/>
		<stopFacility id="GVB:00006.1" x="631671.3484319902" y="5802957.103758387" linkRefId="pt1089" name="Amsterdam, Muiderpoortstation" isBlocking="false"/>
		<stopFacility id="GVB:00007" x="631662.8982169891" y="5802969.899142186" linkRefId="pt676" name="Amsterdam, Muiderpoortstation" isBlocking="false"/>
		<stopFacility id="GVB:00008" x="631405.2579677715" y="5802955.33901438" linkRefId="pt675" name="Amsterdam, Dapperstraat" isBlocking="false"/>
		<stopFacility id="GVB:00008.1" x="631405.2579677715" y="5802955.33901438" linkRefId="pt1088" name="Amsterdam, Dapperstraat" isBlocking="false"/>
		<stopFacility id="GVB:00010" x="631346.9735712142" y="5802933.417675278" linkRefId="pt539" name="Amsterdam, Dapperstraat" isBlocking="false"/>
		<stopFacility id="GVB:00010.1" x="631346.9735712142" y="5802933.417675278" linkRefId="pt678" name="Amsterdam, Dapperstraat" isBlocking="false"/>
		<stopFacility id="GVB:00010.2" x="631346.9735712142" y="5802933.417675278" linkRefId="pt1030" name="Amsterdam, Dapperstraat" isBlocking="false"/>
		<stopFacility id="GVB:00014" x="631087.5193096083" y="5802853.831036794" linkRefId="pt1741" name="Amsterdam, Wijttenbachstraat" isBlocking="false"/>
		<stopFacility id="GVB:00017" x="631133.0112945153" y="5802839.349799658" linkRefId="pt540" name="Amsterdam, Linnaeusstraat" isBlocking="false"/>
		<stopFacility id="GVB:00018" x="636460.4669602623" y="5800228.906432229" linkRefId="pt1527" name="Amsterdam, Diemerknoop" isBlocking="false"/>
		<stopFacility id="GVB:00019" x="636467.2495374967" y="5800235.104250917" linkRefId="pt1538" name="Amsterdam, Diemerknoop" isBlocking="false"/>
		<stopFacility id="GVB:00020" x="630524.1816237035" y="5802704.206251963" linkRefId="pt679" name="Amsterdam, Beukenweg" isBlocking="false"/>
		<stopFacility id="GVB:00021" x="630557.9537137034" y="5802620.296825937" linkRefId="pt673" name="Amsterdam, Beukenweg" isBlocking="false"/>
		<stopFacility id="GVB:00021.1" x="630557.9537137034" y="5802620.296825937" linkRefId="pt1581" name="Amsterdam, Beukenweg" isBlocking="false"/>
		<stopFacility id="GVB:00021.2" x="630557.9537137034" y="5802620.296825937" linkRefId="pt1589" name="Amsterdam, Beukenweg" isBlocking="false"/>
		<stopFacility id="GVB:00023" x="630621.6550601478" y="5802479.3093254715" linkRefId="pt541" name="Amsterdam, Beukenplein" isBlocking="false"/>
		<stopFacility id="GVB:00024" x="630619.8073699282" y="5802505.302664365" linkRefId="pt927" name="Amsterdam, Beukenplein" isBlocking="false"/>
		<stopFacility id="GVB:00029" x="631241.1446621065" y="5802501.785785992" linkRefId="pt1086" name="Amsterdam, Pretoriusstraat" isBlocking="false"/>
		<stopFacility id="GVB:00030" x="631223.0311463485" y="5802537.139424349" linkRefId="pt1031" name="Amsterdam, Pretoriusstraat" isBlocking="false"/>
		<stopFacility id="GVB:00030.1" x="631223.0311463485" y="5802537.139424349" linkRefId="pt1742" name="Amsterdam, Pretoriusstraat" isBlocking="false"/>
		<stopFacility id="GVB:00030.2" x="631223.0311463485" y="5802537.139424349" linkRefId="pt1811" name="Amsterdam, Pretoriusstraat" isBlocking="false"/>
		<stopFacility id="GVB:00039" x="631499.8444117728" y="5802120.162083349" linkRefId="pt1085" name="Amsterdam, Hogeweg" isBlocking="false"/>
		<stopFacility id="GVB:00040" x="631536.20925139" y="5802080.288442735" linkRefId="pt1032" name="Amsterdam, Hogeweg" isBlocking="false"/>
		<stopFacility id="GVB:00041" x="631472.2485403797" y="5801501.973567451" linkRefId="pt511" name="Amsterdam, Maxwellstraat" isBlocking="false"/>
		<stopFacility id="GVB:00044" x="631078.9447664398" y="5801262.900759233" linkRefId="pt507" name="Amsterdam, Fizeaustraat" isBlocking="false"/>
		<stopFacility id="GVB:00044.1" x="631078.9447664398" y="5801262.900759233" linkRefId="pt1017" name="Amsterdam, Fizeaustraat" isBlocking="false"/>
		<stopFacility id="GVB:00046" x="631100.2541899725" y="5801253.562634308" linkRefId="pt510" name="Amsterdam, Fizeaustraat" isBlocking="false"/>
		<stopFacility id="GVB:00046.1" x="631100.2541899725" y="5801253.562634308" linkRefId="pt923" name="Amsterdam, Fizeaustraat" isBlocking="false"/>
		<stopFacility id="GVB:00048" x="631600.2977629385" y="5801260.102650361" linkRefId="pt1018" name="Amsterdam, Lorentzlaan" isBlocking="false"/>
		<stopFacility id="GVB:00049" x="631553.2378737206" y="5801322.505504911" linkRefId="pt1016" name="Amsterdam, Lorentzlaan" isBlocking="false"/>
		<stopFacility id="GVB:00051" x="631911.27731911" y="5801233.248940886" linkRefId="pt1019" name="Amsterdam, Maxwellstraat" isBlocking="false"/>
		<stopFacility id="GVB:00051.1" x="631911.27731911" y="5801233.248940886" linkRefId="pt1083" name="Amsterdam, Maxwellstraat" isBlocking="false"/>
		<stopFacility id="GVB:00052" x="631927.2938256455" y="5801263.838126387" linkRefId="pt1015" name="Amsterdam, Maxwellstraat" isBlocking="false"/>
		<stopFacility id="GVB:00052.1" x="631927.2938256455" y="5801263.838126387" linkRefId="pt1035" name="Amsterdam, Maxwellstraat" isBlocking="false"/>
		<stopFacility id="GVB:00053" x="632120.2022249488" y="5801451.304886095" linkRefId="pt1020" name="Amsterdam, Kruislaan" isBlocking="false"/>
		<stopFacility id="GVB:00054" x="632074.3033581886" y="5801416.797729116" linkRefId="pt1014" name="Amsterdam, Kruislaan" isBlocking="false"/>
		<stopFacility id="GVB:00055" x="632243.6232164644" y="5801591.395339608" linkRefId="pt1013" name="Amsterdam, Linnaeusparkweg" isBlocking="false"/>
		<stopFacility id="GVB:00059" x="632087.4117904846" y="5802112.509601252" linkRefId="pt513" name="Amsterdam, Radioweg" isBlocking="false"/>
		<stopFacility id="GVB:00060" x="632109.4434960361" y="5802142.259240051" linkRefId="pt504" name="Amsterdam, Radioweg" isBlocking="false"/>
		<stopFacility id="GVB:00061" x="632093.6822883672" y="5802376.776956319" linkRefId="pt514" name="Amsterdam, Archimedesweg" isBlocking="false"/>
		<stopFacility id="GVB:00062" x="632109.3333025988" y="5802357.275153334" linkRefId="pt503" name="Amsterdam, Archimedesweg" isBlocking="false"/>
		<stopFacility id="GVB:00062.1" x="632109.3333025988" y="5802357.275153334" linkRefId="pt1509" name="Amsterdam, Archimedesweg" isBlocking="false"/>
		<stopFacility id="GVB:00065" x="631782.1813374809" y="5801842.3512926195" linkRefId="pt1033" name="Amsterdam, Hugo de Vrieslaan" isBlocking="false"/>
		<stopFacility id="GVB:00066" x="631819.1947577568" y="5801811.511658154" linkRefId="pt1084" name="Amsterdam, Hugo de Vrieslaan" isBlocking="false"/>
		<stopFacility id="GVB:00066.1" x="631819.1947577568" y="5801811.511658154" linkRefId="pt1734" name="Amsterdam, Hugo de Vrieslaan" isBlocking="false"/>
		<stopFacility id="GVB:00070" x="632136.4195784108" y="5801504.826650162" linkRefId="pt1034" name="Amsterdam, Kruislaan" isBlocking="false"/>
		<stopFacility id="GVB:00071" x="632172.481219577" y="5801474.075251875" linkRefId="pt1733" name="Amsterdam, Kruislaan" isBlocking="false"/>
		<stopFacility id="GVB:00074" x="632698.7096887034" y="5800958.126715608" linkRefId="pt1743" name="Amsterdam, Brinkstraat" isBlocking="false"/>
		<stopFacility id="GVB:00076" x="632660.2713089157" y="5801000.941574822" linkRefId="pt1732" name="Amsterdam, Brinkstraat" isBlocking="false"/>
		<stopFacility id="GVB:00079" x="632055.999321625" y="5800606.761021615" linkRefId="pt1082" name="Amsterdam, Zaaiersweg" isBlocking="false"/>
		<stopFacility id="GVB:00080" x="632132.0728480421" y="5800515.313636557" linkRefId="pt1036" name="Amsterdam, Zaaiersweg" isBlocking="false"/>
		<stopFacility id="GVB:00113" x="632984.4462927454" y="5798635.559821514" linkRefId="pt1107" name="Amsterdam, Dennenrode" isBlocking="false"/>
		<stopFacility id="GVB:00113.1" x="632984.4462927454" y="5798635.559821514" linkRefId="pt1704" name="Amsterdam, Dennenrode" isBlocking="false"/>
		<stopFacility id="GVB:00114" x="633044.7525935883" y="5798657.553020639" linkRefId="pt1114" name="Amsterdam, Dennenrode" isBlocking="false"/>
		<stopFacility id="GVB:00117" x="634478.7533308899" y="5798796.834018426" linkRefId="pt1543" name="Amsterdam, Station Ganzenhoef" isBlocking="false"/>
		<stopFacility id="GVB:00118" x="633540.1805804407" y="5798952.962102336" linkRefId="pt1115" name="Amsterdam, Echtenstein" isBlocking="false"/>
		<stopFacility id="GVB:00119" x="633553.482344458" y="5798975.46986273" linkRefId="pt1106" name="Amsterdam, Echtenstein" isBlocking="false"/>
		<stopFacility id="GVB:00124" x="634315.6705385582" y="5799010.638999692" linkRefId="pt1542" name="Amsterdam, Geldershoofd" isBlocking="false"/>
		<stopFacility id="GVB:00124.1" x="634315.6705385582" y="5799010.638999692" linkRefId="pt1747" name="Amsterdam, Geldershoofd" isBlocking="false"/>
		<stopFacility id="GVB:00125" x="634312.8387396063" y="5799034.490276266" linkRefId="pt1523" name="Amsterdam, Geldershoofd" isBlocking="false"/>
		<stopFacility id="GVB:00126" x="634684.7349714965" y="5798860.662511085" linkRefId="pt1066" name="Amsterdam, Grubbehoeve" isBlocking="false"/>
		<stopFacility id="GVB:00127" x="634778.4964009896" y="5798900.8419145895" linkRefId="pt1046" name="Amsterdam, Grubbehoeve" isBlocking="false"/>
		<stopFacility id="GVB:00128" x="634994.0414912672" y="5798796.888779439" linkRefId="pt1047" name="Amsterdam, Geerdinkhof" isBlocking="false"/>
		<stopFacility id="GVB:00129" x="634956.1913327323" y="5798881.661694357" linkRefId="pt1065" name="Amsterdam, Geerdinkhof" isBlocking="false"/>
		<stopFacility id="GVB:00134" x="635225.8734960058" y="5798380.316384141" linkRefId="pt1048" name="Amsterdam, Koornhorst" isBlocking="false"/>
		<stopFacility id="GVB:00135" x="635221.9295037509" y="5798407.2531066295" linkRefId="pt1064" name="Amsterdam, Koornhorst" isBlocking="false"/>
		<stopFacility id="GVB:00141" x="634872.138425399" y="5798032.515934654" linkRefId="pt1049" name="Amsterdam, Kraaienneststation" isBlocking="false"/>
		<stopFacility id="GVB:00141.1" x="634872.138425399" y="5798032.515934654" linkRefId="pt1177" name="Amsterdam, Kraaienneststation" isBlocking="false"/>
		<stopFacility id="GVB:00141.2" x="634872.138425399" y="5798032.515934654" linkRefId="pt1213" name="Amsterdam, Kraaienneststation" isBlocking="false"/>
		<stopFacility id="GVB:00144" x="634439.5396993267" y="5798106.292838238" linkRefId="pt1178" name="Amsterdam, Kikkenstein" isBlocking="false"/>
		<stopFacility id="GVB:00145" x="634464.6841416555" y="5798042.093285535" linkRefId="pt1153" name="Amsterdam, Kikkenstein" isBlocking="false"/>
		<stopFacility id="GVB:00146" x="634203.1465987829" y="5798509.642728853" linkRefId="pt1179" name="Amsterdam, Gooioord" isBlocking="false"/>
		<stopFacility id="GVB:00147" x="634225.0832953041" y="5798450.363115147" linkRefId="pt1152" name="Amsterdam, Gooioord" isBlocking="false"/>
		<stopFacility id="GVB:00150" x="633952.2261193916" y="5798442.388698102" linkRefId="pt1069" name="Amsterdam, Tulastraat" isBlocking="false"/>
		<stopFacility id="GVB:00150.1" x="633952.2261193916" y="5798442.388698102" linkRefId="pt1180" name="Amsterdam, Tulastraat" isBlocking="false"/>
		<stopFacility id="GVB:00151" x="633985.544700157" y="5798433.499779149" linkRefId="pt1043" name="Amsterdam, Tulastraat" isBlocking="false"/>
		<stopFacility id="GVB:00152" x="633498.0663384167" y="5798168.311899874" linkRefId="pt1070" name="Amsterdam, Florijn" isBlocking="false"/>
		<stopFacility id="GVB:00153" x="633574.2972506965" y="5798191.74405874" linkRefId="pt1042" name="Amsterdam, Florijn" isBlocking="false"/>
		<stopFacility id="GVB:00157" x="632803.3093021086" y="5798334.416099248" linkRefId="pt1040" name="Amsterdam, Dolingadreef" isBlocking="false"/>
		<stopFacility id="GVB:00157.1" x="632803.3093021086" y="5798334.416099248" linkRefId="pt1108" name="Amsterdam, Dolingadreef" isBlocking="false"/>
		<stopFacility id="GVB:00158" x="632841.3322837076" y="5798302.71975925" linkRefId="pt1072" name="Amsterdam, Dolingadreef" isBlocking="false"/>
		<stopFacility id="GVB:00158.1" x="632841.3322837076" y="5798302.71975925" linkRefId="pt1113" name="Amsterdam, Dolingadreef" isBlocking="false"/>
		<stopFacility id="GVB:00164" x="633514.5365917574" y="5797607.61377906" linkRefId="pt1711" name="Amsterdam, Hofgeest" isBlocking="false"/>
		<stopFacility id="GVB:00167" x="633588.8095902498" y="5797267.840797639" linkRefId="pt1052" name="Amsterdam, Hogevecht" isBlocking="false"/>
		<stopFacility id="GVB:00168" x="633616.8329803328" y="5797265.8172502" linkRefId="pt1060" name="Amsterdam, Hogevecht" isBlocking="false"/>
		<stopFacility id="GVB:00168.1" x="633616.8329803328" y="5797265.8172502" linkRefId="pt1219" name="Amsterdam, Hogevecht" isBlocking="false"/>
		<stopFacility id="GVB:00169" x="633679.0718791729" y="5796957.660815733" linkRefId="pt612" name="Amsterdam, Huigenbos" isBlocking="false"/>
		<stopFacility id="GVB:00169.1" x="633679.0718791729" y="5796957.660815733" linkRefId="pt1053" name="Amsterdam, Huigenbos" isBlocking="false"/>
		<stopFacility id="GVB:00170" x="633683.234083116" y="5796982.81469823" linkRefId="pt1059" name="Amsterdam, Huigenbos" isBlocking="false"/>
		<stopFacility id="GVB:00171" x="633970.2654265884" y="5796469.074790973" linkRefId="pt613" name="Amsterdam, Maasdrielhof" isBlocking="false"/>
		<stopFacility id="GVB:00172" x="633923.1318745441" y="5796169.416373514" linkRefId="pt1054" name="Amsterdam, Holendrechtplein" isBlocking="false"/>
		<stopFacility id="GVB:00172.1" x="633923.1318745441" y="5796169.416373514" linkRefId="pt1171" name="Amsterdam, Holendrechtplein" isBlocking="false"/>
		<stopFacility id="GVB:00173" x="633860.7081759775" y="5796121.313492354" linkRefId="pt1057" name="Amsterdam, Holendrechtplein" isBlocking="false"/>
		<stopFacility id="GVB:00173.1" x="633860.7081759775" y="5796121.313492354" linkRefId="pt1174" name="Amsterdam, Holendrechtplein" isBlocking="false"/>
		<stopFacility id="GVB:00174" x="634015.7264067167" y="5796425.568795333" linkRefId="pt1058" name="Amsterdam, Maasdrielhof" isBlocking="false"/>
		<stopFacility id="GVB:00177" x="633911.219767984" y="5797440.516789966" linkRefId="pt1061" name="Amsterdam, Nelson Mandelapark" isBlocking="false"/>
		<stopFacility id="GVB:00177.1" x="633911.219767984" y="5797440.516789966" linkRefId="pt1707" name="Amsterdam, Nelson Mandelapark" isBlocking="false"/>
		<stopFacility id="GVB:00178" x="633889.015752116" y="5797446.814432141" linkRefId="pt1051" name="Amsterdam, Nelson Mandelapark" isBlocking="false"/>
		<stopFacility id="GVB:00179" x="634410.5983393773" y="5797739.121697547" linkRefId="pt1062" name="Amsterdam, Kelbergen" isBlocking="false"/>
		<stopFacility id="GVB:00180" x="634385.4776732555" y="5797742.332659735" linkRefId="pt1050" name="Amsterdam, Kelbergen" isBlocking="false"/>
		<stopFacility id="GVB:00184" x="634184.1536649847" y="5796143.00592405" linkRefId="pt1170" name="Amsterdam, Meernhof" isBlocking="false"/>
		<stopFacility id="GVB:00185" x="634132.3485913728" y="5796196.354595696" linkRefId="pt614" name="Amsterdam, Meernhof" isBlocking="false"/>
		<stopFacility id="GVB:00185.1" x="634132.3485913728" y="5796196.354595696" linkRefId="pt1175" name="Amsterdam, Meernhof" isBlocking="false"/>
		<stopFacility id="GVB:00186" x="637255.6614269566" y="5796806.54211577" linkRefId="pt1208" name="Amsterdam, Geinbrug" isBlocking="false"/>
		<stopFacility id="GVB:00187" x="637231.432342221" y="5796811.767043944" linkRefId="pt632" name="Amsterdam, Geinbrug" isBlocking="false"/>
		<stopFacility id="GVB:00196" x="634544.3659526214" y="5798779.035666627" linkRefId="pt1067" name="Amsterdam, Station Ganzenhoef" isBlocking="false"/>
		<stopFacility id="GVB:00197" x="634373.4799055031" y="5798653.399037608" linkRefId="pt1044" name="Amsterdam, Annie Romeinplein" isBlocking="false"/>
		<stopFacility id="GVB:00198" x="634262.635947272" y="5798616.657938889" linkRefId="pt1068" name="Amsterdam, Annie Romeinplein" isBlocking="false"/>
		<stopFacility id="GVB:00198.1" x="634262.635947272" y="5798616.657938889" linkRefId="pt1544" name="Amsterdam, Annie Romeinplein" isBlocking="false"/>
		<stopFacility id="GVB:00199" x="634483.4519533" y="5798807.089992467" linkRefId="pt1522" name="Amsterdam, Station Ganzenhoef" isBlocking="false"/>
		<stopFacility id="GVB:00199.1" x="634483.4519533" y="5798807.089992467" linkRefId="pt1727" name="Amsterdam, Station Ganzenhoef" isBlocking="false"/>
		<stopFacility id="GVB:00200" x="634605.7684693509" y="5798798.0732448045" linkRefId="pt1045" name="Amsterdam, Station Ganzenhoef" isBlocking="false"/>
		<stopFacility id="GVB:00200.1" x="634605.7684693509" y="5798798.0732448045" linkRefId="pt1748" name="Amsterdam, Station Ganzenhoef" isBlocking="false"/>
		<stopFacility id="GVB:00201" x="636407.5656995241" y="5797464.829662256" linkRefId="pt631" name="Amsterdam, Reigersbroeck" isBlocking="false"/>
		<stopFacility id="GVB:00202" x="636326.7150791034" y="5797549.295061521" linkRefId="pt1209" name="Amsterdam, Reigersbroeck" isBlocking="false"/>
		<stopFacility id="GVB:00205" x="633563.9511284406" y="5795897.476235079" linkRefId="pt1055" name="Amsterdam, Station Holendrecht" isBlocking="false"/>
		<stopFacility id="GVB:00205.1" x="633563.9511284406" y="5795897.476235079" linkRefId="pt1056" name="Amsterdam, Station Holendrecht" isBlocking="false"/>
		<stopFacility id="GVB:00206" x="634337.2721200844" y="5796019.961415016" linkRefId="pt615" name="Amsterdam, Rhenenhof" isBlocking="false"/>
		<stopFacility id="GVB:00207" x="634390.1635689621" y="5796054.6781740775" linkRefId="pt1169" name="Amsterdam, Rhenenhof" isBlocking="false"/>
		<stopFacility id="GVB:00209" x="633334.3863480003" y="5797095.35410107" linkRefId="pt611" name="Amsterdam, Hakfort" isBlocking="false"/>
		<stopFacility id="GVB:00210" x="633310.136609986" y="5797101.599097683" linkRefId="pt1214" name="Amsterdam, Hakfort" isBlocking="false"/>
		<stopFacility id="GVB:00211" x="633580.2695379178" y="5795887.011026081" linkRefId="pt1172" name="Amsterdam, Station Holendrecht" isBlocking="false"/>
		<stopFacility id="GVB:00211.1" x="633580.2695379178" y="5795887.011026081" linkRefId="pt1173" name="Amsterdam, Station Holendrecht" isBlocking="false"/>
		<stopFacility id="GVB:00220" x="635848.1815814666" y="5797923.628802296" linkRefId="pt630" name="Amsterdam, Gaasp" isBlocking="false"/>
		<stopFacility id="GVB:00221" x="635794.807236873" y="5797872.855068663" linkRefId="pt1210" name="Amsterdam, Gaasp" isBlocking="false"/>
		<stopFacility id="GVB:00235" x="634595.5606409004" y="5795831.452972415" linkRefId="pt616" name="Amsterdam, Station Reigersbos" isBlocking="false"/>
		<stopFacility id="GVB:00236" x="633444.6893813116" y="5797693.312254439" linkRefId="pt1706" name="Amsterdam, Hofgeest" isBlocking="false"/>
		<stopFacility id="GVB:00238" x="633198.903957544" y="5797987.274119088" linkRefId="pt1071" name="Amsterdam, Anton de Komplein" isBlocking="false"/>
		<stopFacility id="GVB:00239" x="633323.033722705" y="5798045.495231191" linkRefId="pt1041" name="Amsterdam, Anton de Komplein" isBlocking="false"/>
		<stopFacility id="GVB:00239.1" x="633323.033722705" y="5798045.495231191" linkRefId="pt1151" name="Amsterdam, Anton de Komplein" isBlocking="false"/>
		<stopFacility id="GVB:00250" x="633328.6056963481" y="5799635.368155902" linkRefId="pt1104" name="Diemen, Station Diemen Zuid" isBlocking="false"/>
		<stopFacility id="GVB:00251" x="633337.1792629021" y="5799648.6214221865" linkRefId="pt1117" name="Diemen, Station Diemen Zuid" isBlocking="false"/>
		<stopFacility id="GVB:00252" x="633199.0134878837" y="5799864.135875301" linkRefId="pt1103" name="Diemen, Tarwekamp" isBlocking="false"/>
		<stopFacility id="GVB:00253" x="633188.1890786028" y="5799888.773283211" linkRefId="pt1118" name="Diemen, Tarwekamp" isBlocking="false"/>
		<stopFacility id="GVB:00254" x="632606.2074538673" y="5799607.538640223" linkRefId="pt1703" name="Diemen, Biesbosch" isBlocking="false"/>
		<stopFacility id="GVB:00255" x="632489.0034739168" y="5799551.634736499" linkRefId="pt1713" name="Diemen, Biesbosch" isBlocking="false"/>
		<stopFacility id="GVB:00256" x="632151.7308358534" y="5799283.382086963" linkRefId="pt604" name="Duivendrecht, Kruidenommegang" isBlocking="false"/>
		<stopFacility id="GVB:00257" x="632158.4662893146" y="5799291.575694552" linkRefId="pt1077" name="Duivendrecht, Kruidenommegang" isBlocking="false"/>
		<stopFacility id="GVB:00258" x="632287.8718958684" y="5799978.162619926" linkRefId="pt1038" name="Duivendrecht, Burg. van Damstraat" isBlocking="false"/>
		<stopFacility id="GVB:00259" x="632300.1810725688" y="5799999.638644356" linkRefId="pt1080" name="Duivendrecht, Burg. van Damstraat" isBlocking="false"/>
		<stopFacility id="GVB:00261" x="631979.0215602369" y="5799756.870009795" linkRefId="pt601" name="Duivendrecht, Lunaweg" isBlocking="false"/>
		<stopFacility id="GVB:00266" x="632191.2378218018" y="5799480.761788707" linkRefId="pt603" name="Duivendrecht, Korenbloemstraat" isBlocking="false"/>
		<stopFacility id="GVB:00267" x="632200.0150168968" y="5799517.056036516" linkRefId="pt1078" name="Duivendrecht, Korenbloemstraat" isBlocking="false"/>
		<stopFacility id="GVB:00268" x="631801.7305371833" y="5799489.921766009" linkRefId="pt1702" name="Duivendrecht, Astronautenweg" isBlocking="false"/>
		<stopFacility id="GVB:00269" x="631843.5886840227" y="5799495.270001656" linkRefId="pt1714" name="Duivendrecht, Astronautenweg" isBlocking="false"/>
		<stopFacility id="GVB:00295" x="632369.030993712" y="5798943.423216149" linkRefId="pt1074" name="Amsterdam, Dalsteindreef" isBlocking="false"/>
		<stopFacility id="GVB:00296" x="632374.0591437488" y="5798941.554909781" linkRefId="pt607" name="Amsterdam, Dalsteindreef" isBlocking="false"/>
		<stopFacility id="GVB:00304" x="635324.6123586057" y="5797508.240279119" linkRefId="pt629" name="Amsterdam, Gaasperplas" isBlocking="false"/>
		<stopFacility id="GVB:00305" x="634877.962937108" y="5797340.419037763" linkRefId="pt627" name="Amsterdam, Leusdenhof" isBlocking="false"/>
		<stopFacility id="GVB:00306" x="634869.6488659218" y="5797350.097034427" linkRefId="pt1157" name="Amsterdam, Leusdenhof" isBlocking="false"/>
		<stopFacility id="GVB:00306.1" x="634869.6488659218" y="5797350.097034427" linkRefId="pt1709" name="Amsterdam, Leusdenhof" isBlocking="false"/>
		<stopFacility id="GVB:00307" x="634580.9053544337" y="5797064.420895148" linkRefId="pt626" name="Amsterdam, Leerdamhof" isBlocking="false"/>
		<stopFacility id="GVB:00314" x="634671.2840418582" y="5796842.404967443" linkRefId="pt1158" name="Amsterdam, Leerdamhof" isBlocking="false"/>
		<stopFacility id="GVB:00315" x="635322.5014128443" y="5797513.079386313" linkRefId="pt1212" name="Amsterdam, Gaasperplas" isBlocking="false"/>
		<stopFacility id="GVB:00321" x="635327.6995498332" y="5797475.270162262" linkRefId="pt628" name="Amsterdam, Gaasperplas (uitstap)" isBlocking="false"/>
		<stopFacility id="GVB:00321.1" x="635327.6995498332" y="5797475.270162262" linkRefId="pt1155" name="Amsterdam, Gaasperplas (uitstap)" isBlocking="false"/>
		<stopFacility id="GVB:00321.2" x="635327.6995498332" y="5797475.270162262" linkRefId="pt1211" name="Amsterdam, Gaasperplas (uitstap)" isBlocking="false"/>
		<stopFacility id="GVB:00322" x="635328.8943269849" y="5797501.346105046" linkRefId="pt1176" name="Amsterdam, Gaasperplas" isBlocking="false"/>
		<stopFacility id="GVB:00322.1" x="635328.8943269849" y="5797501.346105046" linkRefId="pt1708" name="Amsterdam, Gaasperplas" isBlocking="false"/>
		<stopFacility id="GVB:00323" x="635331.0357882443" y="5797495.394881136" linkRefId="pt1156" name="Amsterdam, Gaasperplas" isBlocking="false"/>
		<stopFacility id="GVB:00330" x="631762.2822266385" y="5801778.604650955" linkRefId="pt512" name="Amsterdam, Middenweg" isBlocking="false"/>
		<stopFacility id="GVB:00331" x="634575.7396889627" y="5795947.771856227" linkRefId="pt1168" name="Amsterdam, Station Reigersbos" isBlocking="false"/>
		<stopFacility id="GVB:00332" x="634653.753371933" y="5795554.247043755" linkRefId="pt617" name="Amsterdam, Schoonhovendreef" isBlocking="false"/>
		<stopFacility id="GVB:00333" x="634663.0129790506" y="5795577.537586231" linkRefId="pt1167" name="Amsterdam, Schoonhovendreef" isBlocking="false"/>
		<stopFacility id="GVB:00334" x="634855.5153400757" y="5795442.783479806" linkRefId="pt618" name="Amsterdam, Scherpenzeelstraat" isBlocking="false"/>
		<stopFacility id="GVB:00335" x="634844.1432882696" y="5795454.381400728" linkRefId="pt1166" name="Amsterdam, Scherpenzeelstraat" isBlocking="false"/>
		<stopFacility id="GVB:00336" x="635140.7576410301" y="5795438.229382387" linkRefId="pt619" name="Amsterdam, Schaarsbergenstraat" isBlocking="false"/>
		<stopFacility id="GVB:00337" x="635121.4338630096" y="5795448.607385066" linkRefId="pt1165" name="Amsterdam, Schaarsbergenstraat" isBlocking="false"/>
		<stopFacility id="GVB:00338" x="635443.016223248" y="5795465.2099043215" linkRefId="pt620" name="Amsterdam, Staverdenplein" isBlocking="false"/>
		<stopFacility id="GVB:00339" x="635430.7979313583" y="5795472.776687228" linkRefId="pt1164" name="Amsterdam, Staverdenplein" isBlocking="false"/>
		<stopFacility id="GVB:00341" x="635629.942448281" y="5795621.369633232" linkRefId="pt1163" name="Amsterdam, Woudrichemstraat" isBlocking="false"/>
		<stopFacility id="GVB:00343" x="635638.6413306429" y="5796116.874003507" linkRefId="pt1161" name="Amsterdam, W. Gertenbachstraat" isBlocking="false"/>
		<stopFacility id="GVB:00344" x="635647.68942264" y="5796145.169153678" linkRefId="pt623" name="Amsterdam, W. Gertenbachstraat" isBlocking="false"/>
		<stopFacility id="GVB:00345" x="635643.3978422167" y="5795851.898552683" linkRefId="pt1162" name="Amsterdam, Station Gein" isBlocking="false"/>
		<stopFacility id="GVB:00345.1" x="635643.3978422167" y="5795851.898552683" linkRefId="pt1710" name="Amsterdam, Station Gein" isBlocking="false"/>
		<stopFacility id="GVB:00346" x="635659.6591210582" y="5795873.491576046" linkRefId="pt622" name="Amsterdam, Station Gein" isBlocking="false"/>
		<stopFacility id="GVB:00347" x="633002.8431895801" y="5797439.651376457" linkRefId="pt610" name="Amsterdam, Haardstee" isBlocking="false"/>
		<stopFacility id="GVB:00347.1" x="633002.8431895801" y="5797439.651376457" linkRefId="pt1218" name="Amsterdam, Haardstee" isBlocking="false"/>
		<stopFacility id="GVB:00348" x="633025.2760171575" y="5797427.34612773" linkRefId="pt1215" name="Amsterdam, Haardstee" isBlocking="false"/>
		<stopFacility id="GVB:00349" x="635645.4281632527" y="5795638.934617869" linkRefId="pt621" name="Amsterdam, Woudrichemstraat" isBlocking="false"/>
		<stopFacility id="GVB:00351" x="632573.5295491061" y="5798717.983237417" linkRefId="pt1073" name="Amsterdam, Dostojevskisingel" isBlocking="false"/>
		<stopFacility id="GVB:00352" x="632526.0840367639" y="5798760.446259078" linkRefId="pt608" name="Amsterdam, Dostojevskisingel" isBlocking="false"/>
		<stopFacility id="GVB:00364" x="633200.7080567849" y="5800056.275128333" linkRefId="pt1102" name="Diemen, Boven Rijkersloot" isBlocking="false"/>
		<stopFacility id="GVB:00365" x="633231.2211098226" y="5800100.281792357" linkRefId="pt1119" name="Diemen, Boven Rijkersloot" isBlocking="false"/>
		<stopFacility id="GVB:00370" x="632255.1355203114" y="5799787.974725266" linkRefId="pt602" name="Duivendrecht, Plataanstraat" isBlocking="false"/>
		<stopFacility id="GVB:00370.1" x="632255.1355203114" y="5799787.974725266" linkRefId="pt1039" name="Duivendrecht, Plataanstraat" isBlocking="false"/>
		<stopFacility id="GVB:00371" x="632257.340556781" y="5799782.0240527745" linkRefId="pt1079" name="Duivendrecht, Plataanstraat" isBlocking="false"/>
		<stopFacility id="GVB:00419" x="635409.2887842252" y="5796428.436605401" linkRefId="pt1160" name="Amsterdam, Wamelstraat" isBlocking="false"/>
		<stopFacility id="GVB:00420" x="635384.950404343" y="5796437.674214816" linkRefId="pt624" name="Amsterdam, Wamelstraat" isBlocking="false"/>
		<stopFacility id="GVB:00421" x="635064.4955377616" y="5796417.096923065" linkRefId="pt1159" name="Amsterdam, Veenendaalplein" isBlocking="false"/>
		<stopFacility id="GVB:00422" x="635034.1581537572" y="5796426.17206848" linkRefId="pt625" name="Amsterdam, Veenendaalplein" isBlocking="false"/>
		<stopFacility id="GVB:00434" x="632943.4034821101" y="5797817.782164055" linkRefId="pt1112" name="Amsterdam, Bijlmerplein" isBlocking="false"/>
		<stopFacility id="GVB:00434.1" x="632943.4034821101" y="5797817.782164055" linkRefId="pt1150" name="Amsterdam, Bijlmerplein" isBlocking="false"/>
		<stopFacility id="GVB:00434.2" x="632943.4034821101" y="5797817.782164055" linkRefId="pt1521" name="Amsterdam, Bijlmerplein" isBlocking="false"/>
		<stopFacility id="GVB:00436" x="632593.3572509065" y="5800118.252369623" linkRefId="pt1037" name="Duivendrecht, Industrieweg" isBlocking="false"/>
		<stopFacility id="GVB:00437" x="632544.916577259" y="5800162.691260844" linkRefId="pt1081" name="Duivendrecht, Industrieweg" isBlocking="false"/>
		<stopFacility id="GVB:00437.1" x="632544.916577259" y="5800162.691260844" linkRefId="pt1090" name="Duivendrecht, Industrieweg" isBlocking="false"/>
		<stopFacility id="GVB:00441" x="631594.0449688195" y="5802935.561353775" linkRefId="pt677" name="Amsterdam, Muiderpoortstation" isBlocking="false"/>
		<stopFacility id="GVB:00442" x="633537.6519248264" y="5800395.601441717" linkRefId="pt1101" name="Diemen, Beukenhorst" isBlocking="false"/>